Version 4
SHEET 1 2200 680
WIRE -32 -880 -128 -880
WIRE 112 -880 32 -880
WIRE -224 -816 -256 -816
WIRE -352 -768 -352 -816
WIRE -384 -752 -528 -752
WIRE -48 -752 -48 -784
WIRE -256 -736 -256 -816
WIRE -256 -736 -320 -736
WIRE -224 -736 -256 -736
WIRE -128 -736 -128 -880
WIRE -128 -736 -144 -736
WIRE -80 -736 -128 -736
WIRE -384 -720 -448 -720
WIRE 112 -720 112 -880
WIRE 112 -720 -16 -720
WIRE 160 -720 112 -720
WIRE -80 -704 -128 -704
WIRE -352 -672 -352 -704
WIRE -48 -640 -48 -688
WIRE -448 -592 -448 -720
WIRE -384 -592 -448 -592
WIRE -256 -592 -256 -736
WIRE -256 -592 -304 -592
WIRE 224 -512 224 -576
WIRE -448 -496 -448 -592
WIRE -384 -496 -448 -496
WIRE 112 -496 112 -720
WIRE 112 -496 -304 -496
WIRE 192 -496 112 -496
WIRE 400 -480 256 -480
WIRE 192 -464 160 -464
WIRE -528 -400 -528 -752
WIRE -128 -400 -128 -704
WIRE -128 -400 -528 -400
WIRE -16 -368 -16 -400
WIRE 224 -336 224 -448
WIRE -752 -320 -752 -368
WIRE -624 -320 -752 -320
WIRE -624 -304 -624 -320
WIRE -16 -272 -16 -288
WIRE 112 -272 112 -320
WIRE 112 -272 -16 -272
WIRE 160 -272 160 -464
WIRE 160 -272 112 -272
WIRE -752 -256 -752 -320
WIRE -448 -256 -448 -304
WIRE -16 -256 -16 -272
WIRE -528 -240 -528 -400
WIRE -480 -240 -528 -240
WIRE -128 -224 -128 -400
WIRE -128 -224 -416 -224
WIRE -624 -208 -624 -224
WIRE -480 -208 -624 -208
WIRE -624 -192 -624 -208
WIRE -448 -144 -448 -192
WIRE -16 -144 -16 -176
WIRE -752 -48 -752 -176
WIRE -624 -48 -624 -112
FLAG -624 -48 0
FLAG -752 -48 0
FLAG -48 -640 0
FLAG -448 -144 0
FLAG 224 -336 0
FLAG -352 -672 0
FLAG -752 -368 VCC
IOPIN -752 -368 BiDir
FLAG -352 -816 VCC
IOPIN -352 -816 BiDir
FLAG -48 -784 VCC
IOPIN -48 -784 BiDir
FLAG -448 -304 VCC
IOPIN -448 -304 BiDir
FLAG -224 -816 Va
IOPIN -224 -816 Out
FLAG 160 -720 Vb
IOPIN 160 -720 Out
FLAG 224 -576 Vout
IOPIN 224 -576 BiDir
FLAG 400 -480 Vg
IOPIN 400 -480 Out
FLAG -16 -400 VCC
IOPIN -16 -400 BiDir
FLAG -16 -144 0
FLAG 112 -320 Vr
IOPIN 112 -320 Out
FLAG 592 -384 0
FLAG 592 -464 Vout
IOPIN 592 -464 BiDir
SYMBOL OpAmps\\LM324 -352 -736 R0
SYMATTR InstName U1
SYMBOL OpAmps\\LM324 -48 -720 R0
SYMATTR InstName U2
SYMBOL OpAmps\\LM324 -448 -224 R0
SYMATTR InstName U3
SYMBOL res -128 -752 R90
WINDOW 0 0 56 VBottom 2
WINDOW 3 32 56 VTop 2
SYMATTR InstName R5
SYMATTR Value 100k
SYMBOL res -640 -320 R0
SYMATTR InstName R1
SYMATTR Value 100k
SYMBOL res -640 -208 R0
SYMATTR InstName R2
SYMATTR Value 100k
SYMBOL voltage -752 -272 R0
SYMATTR InstName V1
SYMATTR Value 5
SYMBOL res -288 -608 R90
WINDOW 0 0 56 VBottom 2
WINDOW 3 32 56 VTop 2
SYMATTR InstName R3
SYMATTR Value 100k
SYMBOL res -288 -512 R90
WINDOW 0 0 56 VBottom 2
WINDOW 3 32 56 VTop 2
SYMATTR InstName R4
SYMATTR Value 45k
SYMBOL cap 32 -896 R90
WINDOW 0 0 32 VBottom 2
WINDOW 3 32 32 VTop 2
SYMATTR InstName C1
SYMATTR Value 30p
SYMBOL res -32 -384 R0
SYMATTR InstName R6
SYMATTR Value {Rpot}
SYMBOL res -32 -272 R0
SYMATTR InstName R7
SYMATTR Value 100k
SYMBOL voltage 592 -480 R0
SYMATTR InstName V2
SYMATTR Value 12
SYMBOL OpAmps\\opamp2 224 -544 R0
SYMATTR InstName U4
TEXT -784 88 Left 2 !.tran 0.5m startup
TEXT -480 80 Left 2 !.model IRF9540 PMOS(Level=3 Gamma=0 Delta=0 Eta=0 Theta=0 Kappa=0.2 Vmax=0 Xj=0\n+ Tox=100n Uo=300 Phi=.6 Rs=64.15m Kp=10.18u W=1.5 L=2u\n+ Vto=-3.646 Rd=62.45m Rds=444.4K Cbd=2.029n Pb=.8 Mj=.5 Fc=.5\n+ Cgso=1.033n Cgdo=469.4p Rg=.3371 Is=54.08E-18 N=2 Tt=140n)
TEXT -472 200 Left 2 !.model 1N4002 D (Is=14.11n N=1.984 Rs=33.89E-3 Ikf=94.81 Xti=3 Eg=1.110 Cjo=51.17E-12)
TEXT -784 136 Left 2 !.param Rpot 50k
