Version 4.1
SHEET 1 1848 748
WIRE 720 -352 592 -352
WIRE 896 -352 720 -352
WIRE 928 -352 896 -352
WIRE 1040 -352 1008 -352
WIRE 1168 -352 1120 -352
WIRE 1232 -352 1168 -352
WIRE 1248 -352 1232 -352
WIRE 1296 -352 1248 -352
WIRE 1424 -352 1296 -352
WIRE 1424 -336 1424 -352
WIRE 1008 -320 1008 -352
WIRE 1008 -320 720 -320
WIRE 592 -272 592 -352
WIRE 1296 -272 1296 -352
WIRE 1168 -256 1168 -352
WIRE 1248 -256 1248 -352
WIRE 720 -224 720 -320
WIRE 736 -224 720 -224
WIRE 928 -224 928 -352
WIRE 928 -224 864 -224
WIRE 1424 -224 1424 -256
WIRE 1520 -224 1424 -224
WIRE 1424 -208 1424 -224
WIRE 592 -176 592 -192
WIRE 672 -176 592 -176
WIRE 736 -176 672 -176
WIRE 1008 -176 1008 -320
WIRE 1008 -176 864 -176
WIRE 672 -144 672 -176
WIRE 800 -144 800 -160
WIRE 1168 -96 1168 -192
WIRE 1248 -96 1248 -192
WIRE 1248 -96 1168 -96
WIRE 1296 -96 1296 -192
WIRE 1296 -96 1248 -96
WIRE 1360 -96 1296 -96
WIRE 1424 -96 1424 -128
WIRE 1424 -96 1360 -96
WIRE 1360 -80 1360 -96
WIRE 800 -64 800 -144
WIRE 704 -16 672 -16
WIRE 928 0 864 0
WIRE 1040 0 992 0
WIRE 672 48 672 -16
WIRE 800 48 800 16
WIRE 672 64 672 48
WIRE 864 96 864 0
WIRE 880 96 864 96
WIRE 976 96 960 96
WIRE 1040 96 1040 0
WIRE 1120 144 1072 144
WIRE 1248 144 1200 144
WIRE 672 160 672 144
WIRE 976 176 976 160
WIRE 976 208 976 176
WIRE 1040 224 1040 96
WIRE 1040 224 1008 224
WIRE 1072 224 1072 144
WIRE 1072 224 1040 224
WIRE 1104 224 1072 224
WIRE 1248 224 1248 144
WIRE 1328 224 1248 224
WIRE 1376 224 1328 224
WIRE 1520 224 1520 -224
WIRE 1520 224 1456 224
WIRE 672 240 672 160
WIRE 864 240 864 96
WIRE 864 240 672 240
WIRE 944 240 864 240
WIRE 1328 240 1328 224
WIRE 1072 256 1008 256
WIRE 1072 272 1072 256
WIRE 976 352 976 272
WIRE 1072 384 1072 352
FLAG 1232 -352 out
FLAG 896 -352 sw
FLAG 800 -144 d
FLAG 720 -352 in
FLAG 976 352 0
FLAG 1072 384 0
FLAG 976 176 in
FLAG 800 48 0
FLAG 704 -16 ctrl
IOPIN 704 -16 Out
FLAG 672 48 x
FLAG 672 160 y
FLAG 672 -144 0
FLAG 1328 384 0
FLAG 1360 -80 0
SYMBOL cap 1152 -256 R0
WINDOW 0 -44 28 Left 2
WINDOW 3 -47 63 Left 2
SYMATTR InstName C1
SYMATTR Value 10µF
SYMBOL res 1280 -288 R0
SYMATTR InstName Rload
SYMATTR Value 50
SYMBOL voltage 592 -288 R0
WINDOW 123 0 0 Left 0
WINDOW 39 0 0 Left 0
SYMATTR InstName Vg
SYMATTR Value 12
SYMBOL ccm1 800 -192 M0
SYMATTR InstName U1
SYMATTR Value CCM2
SYMATTR SpiceLine Ron=8m
SYMATTR SpiceLine2 VD=0.5 RD=0.05
SYMBOL Opamps\\LT1215 976 176 M0
SYMATTR InstName U2
SYMBOL voltage 1072 256 R0
WINDOW 123 24 116 Left 2
WINDOW 39 0 0 Left 2
WINDOW 0 42 47 Left 2
SYMATTR Value2 AC 0
SYMATTR InstName Vref1
SYMATTR Value 2.5
SYMBOL bv 800 -80 R0
WINDOW 3 -268 15 Left 2
SYMATTR Value V=limit(v(ctrl), 0.01, 0.9)
SYMATTR InstName B1
SYMBOL voltage 672 48 R0
WINDOW 0 41 45 Left 2
WINDOW 123 37 65 Left 2
WINDOW 39 0 0 Left 2
SYMATTR InstName Vz1
SYMATTR Value2 AC 1
SYMATTR Value ""
SYMBOL res 1408 -352 R0
SYMATTR InstName R4
SYMATTR Value 15k
SYMBOL res 1408 -224 R0
SYMATTR InstName R5
SYMATTR Value 5.6k
SYMBOL ind 1136 -368 R90
WINDOW 0 5 56 VBottom 2
WINDOW 3 32 56 VTop 2
SYMATTR InstName L1
SYMATTR Value 300µ
SYMBOL voltage 1328 288 R0
WINDOW 123 24 124 Left 2
WINDOW 39 0 0 Left 0
WINDOW 0 43 65 Left 2
SYMATTR Value2 AC 1
SYMATTR InstName V1
SYMATTR Value ""
SYMBOL cap 1312 240 R0
WINDOW 3 38 36 Left 2
SYMATTR InstName C2
SYMATTR Value 1Meg
SYMBOL ind 1472 208 R90
WINDOW 0 5 56 VBottom 2
WINDOW 3 32 56 VTop 2
SYMATTR InstName L2
SYMATTR Value 1Meg
SYMBOL res 976 80 R90
WINDOW 0 0 56 VBottom 2
WINDOW 3 32 56 VTop 2
SYMATTR InstName R2
SYMATTR Value 10k
SYMBOL cap 992 -16 R90
WINDOW 0 0 32 VBottom 2
WINDOW 3 32 32 VTop 2
SYMATTR InstName C4
SYMATTR Value 1n
SYMBOL cap 1040 80 R90
WINDOW 0 0 32 VBottom 2
WINDOW 3 32 32 VTop 2
SYMATTR InstName C5
SYMATTR Value 100n
SYMBOL cap 1248 208 R90
WINDOW 0 0 32 VBottom 2
WINDOW 3 32 32 VTop 2
SYMATTR InstName C6
SYMATTR Value 0.1n
SYMBOL res 1200 208 R90
WINDOW 0 0 56 VBottom 2
WINDOW 3 32 56 VTop 2
SYMATTR InstName R3
SYMATTR Value 500
SYMBOL res 1216 128 R90
WINDOW 0 0 56 VBottom 2
WINDOW 3 32 56 VTop 2
SYMATTR InstName R6
SYMATTR Value 10k
SYMBOL cap 1232 -256 R0
WINDOW 0 -44 28 Left 2
WINDOW 3 -47 63 Left 2
SYMATTR InstName C3
SYMATTR Value 1nF
TEXT 1264 40 Left 2 ;Simulation directives
TEXT 1264 80 Left 2 !.lib average.lib
TEXT 1264 -40 Left 2 ;Boost converter\naverage model
TEXT 1264 120 Left 2 !.ac dec 300 1 100k
